Version 4
SHEET 1 880 680
SYMBOL PowerProducts\\LT1521 224 160 R0
SYMATTR InstName U1
