Version 4
SHEET 1 1896 8432
WIRE -96 80 -160 80
WIRE 80 80 -16 80
WIRE 256 80 80 80
WIRE 368 80 256 80
WIRE 256 112 256 80
WIRE 80 128 80 80
WIRE 208 192 208 176
WIRE 208 192 80 192
WIRE 80 240 80 192
WIRE 160 320 80 320
WIRE 256 320 256 176
WIRE 256 320 160 320
WIRE -160 336 -160 80
WIRE 160 368 160 320
FLAG 160 368 0
FLAG -160 336 0
SYMBOL zener 96 192 R180
WINDOW 0 24 64 Left 2
WINDOW 3 24 0 Left 2
SYMATTR InstName D1
SYMATTR Value MMBZ6V8ALY
SYMBOL Misc\\SCR 240 112 R0
SYMATTR InstName U1
SYMATTR Value EC103D1
SYMBOL res 64 224 R0
SYMATTR InstName R1
SYMATTR Value 30k
SYMBOL voltage 0 80 R90
WINDOW 0 -32 56 VBottom 2
WINDOW 3 32 56 VTop 2
WINDOW 123 0 0 Left 0
WINDOW 39 0 0 Left 0
SYMATTR InstName V1
SYMATTR Value 40
TEXT -162 392 Left 2 !.tran 10
TEXT 384 72 Left 2 !**********\n* Littelfuse, LP\n* QUADRAC, SPICE Model\n* Q4006LT\n*\n* T. Chenoski, 11/29/2007\n*\n**********\n**********\n.SUBCKT Q4006LT  1  2  3\n*    TERMINALS: MT2 G MT1\nXchip1 2 4 DIAC\nXchip2 1 4 3 TRIAC\n \n.SUBCKT DIAC  1   2\n* TERMINALS: MT1 MT2\nV1   17 3  DC 28 ac 0\nV2   16 15 DC 28 ac 0\nSrev 3 1 7 1  DIACtrigg  \nSfor 15 2 4 2 DIACtrigg  \nDfor 1 4 DN4148\nDrev 2 7 DN4148\nD1 7 17  Zone\nD2 4 16  Zone\n.MODEL Zone      D  (BV=100 CJO=4PF IS=7E-09 M=.45 N=.1 RS=.8 VJ=.6V)\n.MODEL DN4148    D  (BV=100 CJO=4PF IS=7E-09 M=.45 N=2 RS=.8 TT=6E-09 VJ=.6V)\n.MODEL DIACtrigg SW (VT=33.1 VH=5 RON=7.5 ROFF=500meg)\n.ENDS\n \n.SUBCKT TRIAC    1  2  3\n*    TERMINALS: MT2 G MT1\nQnpn1  5 4 3  NoutF OFF\nQpnp1  4 5 7  PoutF OFF\nQnpn2 11 6 7  NoutR OFF\nQpnp2 6 11 3  PoutR OFF\nDfor  4  5 DZ OFF\nDrev  6 11 DZ OFF\nRfor  4 6  12MEG\nRon   1 7  61.6M\nRhold 7 6  50\nRGP   8 3  50\nRG    2 8  5.8\nRS    8 4  100\nDN    9 2  DIN OFF\nRN    9 3  6.12\nGNN   6 7 9 3 1.100\nGNP   4 5 9 3 0.521\nDP    2 10  DIP OFF\nRP    10 3  3.56\nGP    7 6 10 3 0.1\n.MODEL DIN   D   (IS=382F)\n.MODEL DIP   D   (IS=382F N=1.19)\n.MODEL DZ    D   (IS=382F N=1.5 IBV=50U BV=200)\n.MODEL PoutF PNP (IS=382F BF=1 CJE=761P TF=0.3U)\n.MODEL NoutF NPN (IS=382F BF=3 CJE=761P CJC=152P TF=0.3U)\n.MODEL PoutR PNP (IS=382F BF=5 CJE=761P TF=0.3U)\n.MODEL NoutR NPN (IS=382F BF=0.5 CJE=761P CJC=152P TF=0.3U)\n.ENDS\n.ENDS\n**********
TEXT 720 16 Left 2 !**********************************\n**********************************\n**\n** Littelfuse, LP\n** SCR SPICE Models\n** EC103xx-SxSx\n**\n** T. Chenoski\n** Irving Technical Center\n**\n** A 06/13/08\n**\n**********************************\n**********************************\n.SUBCKT EC103D1    1  2             3\n*       TERMINALS: A  G             K\nQpnp    6          4  1             Pfor      OFF\nQnpn    4          6  5             Nfor      OFF\nRfor    6          4  5G\nRrev    1          4  5G\nRshort  6          5  1MEG\nRlat    2          6  9.09\nRon     3          5  513.4m\nDfor    6          4  Zbrk\nDrev    1          4  Zbrk\nDgate   6          5  Zgate\n.MODEL  Zbrk       D  (IS=3.2E-16   IBV=100U  BV=400)\n.MODEL  Zgate      D  (IS=1E-16     IBV=100U  BV=10      VJ=0.3)\n.MODEL  Pfor       PNP(IS=5E-15     BF=6.10   CJE=5p     CJC=2p     TF=0.3U)\n.MODEL  Nfor       NPN(IS=1E-12     ISE=1E-9  BF=10.0    RC=0.45    CJE=30p     CJC=2p      TF=0.3U)\n.ENDS\n \n.SUBCKT EC103M1    1  2             3\n*       TERMINALS: A  G             K\nQpnp    6          4  1             Pfor      OFF\nQnpn    4          6  5             Nfor      OFF\nRfor    6          4  5G\nRrev    1          4  5G\nRshort  6          5  1MEG\nRlat    2          6  9.09\nRon     3          5  513.4m\nDfor    6          4  Zbrk\nDrev    1          4  Zbrk\nDgate   6          5  Zgate\n.MODEL  Zbrk       D  (IS=3.2E-16   IBV=100U  BV=600)\n.MODEL  Zgate      D  (IS=1E-16     IBV=100U  BV=10      VJ=0.3)\n.MODEL  Pfor       PNP(IS=5E-15     BF=6.10   CJE=5p     CJC=2p     TF=0.3U)\n.MODEL  Nfor       NPN(IS=1E-12     ISE=1E-9  BF=10.0    RC=0.45    CJE=30p     CJC=2p      TF=0.3U)\n.ENDS\n \n.SUBCKT EC103D2    1  2             3\n*       TERMINALS: A  G             K\nQpnp    6          4  1             Pfor      OFF\nQnpn    4          6  5             Nfor      OFF\nRfor    6          4  5G\nRrev    1          4  5G\nRshort  6          5  1MEG\nRlat    2          6  9.09\nRon     3          5  513.4m\nDfor    6          4  Zbrk\nDrev    1          4  Zbrk\nDgate   6          5  Zgate\n.MODEL  Zbrk       D  (IS=3.2E-16   IBV=100U  BV=400)\n.MODEL  Zgate      D  (IS=1E-16     IBV=100U  BV=10      VJ=0.3)\n.MODEL  Pfor       PNP(IS=5E-15     BF=2.20   CJE=5p     CJC=2p     TF=0.3U)\n.MODEL  Nfor       NPN(IS=1E-12     ISE=1E-9  BF=10.0    RC=0.45    CJE=30p     CJC=2p      TF=0.3U)\n.ENDS\n \n.SUBCKT EC103M2    1  2             3\n*       TERMINALS: A  G             K\nQpnp    6          4  1             Pfor      OFF\nQnpn    4          6  5             Nfor      OFF\nRfor    6          4  5G\nRrev    1          4  5G\nRshort  6          5  1MEG\nRlat    2          6  9.09\nRon     3          5  513.4m\nDfor    6          4  Zbrk\nDrev    1          4  Zbrk\nDgate   6          5  Zgate\n.MODEL  Zbrk       D  (IS=3.2E-16   IBV=100U  BV=600)\n.MODEL  Zgate      D  (IS=1E-16     IBV=100U  BV=10      VJ=0.3)\n.MODEL  Pfor       PNP(IS=5E-15     BF=2.20   CJE=5p     CJC=2p     TF=0.3U)\n.MODEL  Nfor       NPN(IS=1E-12     ISE=1E-9  BF=10.0    RC=0.45    CJE=30p     CJC=2p      TF=0.3U)\n.ENDS\n \n.SUBCKT EC103D     1  2             3\n*       TERMINALS: A  G             K\nQpnp    6          4  1             Pfor      OFF\nQnpn    4          6  5             Nfor      OFF\nRfor    6          4  5G\nRrev    1          4  5G\nRshort  6          5  1MEG\nRlat    2          6  9.09\nRon     3          5  513.4m\nDfor    6          4  Zbrk\nDrev    1          4  Zbrk\nDgate   6          5  Zgate\n.MODEL  Zbrk       D  (IS=3.2E-16   IBV=100U  BV=400)\n.MODEL  Zgate      D  (IS=1E-16     IBV=100U  BV=10      VJ=0.3)\n.MODEL  Pfor       PNP(IS=5E-15     BF=1.10   CJE=5p     CJC=2p     TF=0.3U)\n.MODEL  Nfor       NPN(IS=1E-12     ISE=1E-9  BF=10.0    RC=0.45    CJE=30p     CJC=2p      TF=0.3U)\n.ENDS\n \n.SUBCKT EC103M     1  2             3\n*       TERMINALS: A  G             K\nQpnp    6          4  1             Pfor      OFF\nQnpn    4          6  5             Nfor      OFF\nRfor    6          4  5G\nRrev    1          4  5G\nRshort  6          5  1MEG\nRlat    2          6  9.09\nRon     3          5  513.4m\nDfor    6          4  Zbrk\nDrev    1          4  Zbrk\nDgate   6          5  Zgate\n.MODEL  Zbrk       D  (IS=3.2E-16   IBV=100U  BV=600)\n.MODEL  Zgate      D  (IS=1E-16     IBV=100U  BV=10      VJ=0.3)\n.MODEL  Pfor       PNP(IS=5E-15     BF=1.10   CJE=5p     CJC=2p     TF=0.3U)\n.MODEL  Nfor       NPN(IS=1E-12     ISE=1E-9  BF=10.0    RC=0.45    CJE=30p     CJC=2p      TF=0.3U)\n.ENDS\n \n.SUBCKT EC103D3    1  2             3\n*       TERMINALS: A  G             K\nQpnp    6          4  1             Pfor      OFF\nQnpn    4          6  5             Nfor      OFF\nRfor    6          4  5G\nRrev    1          4  5G\nRshort  6          5  1MEG\nRlat    2          6  9.09\nRon     3          5  513.4m\nDfor    6          4  Zbrk\nDrev    1          4  Zbrk\nDgate   6          5  Zgate\n.MODEL  Zbrk       D  (IS=3.2E-16   IBV=100U  BV=400)\n.MODEL  Zgate      D  (IS=1E-16     IBV=100U  BV=10      VJ=0.3)\n.MODEL  Pfor       PNP(IS=5E-15     BF=0.95   CJE=5p     CJC=2p     TF=0.3U)\n.MODEL  Nfor       NPN(IS=1E-12     ISE=1E-9  BF=10.0    RC=0.45    CJE=30p     CJC=2p      TF=0.3U)\n.ENDS\n \n.SUBCKT EC103M3    1  2             3\n*       TERMINALS: A  G             K\nQpnp    6          4  1             Pfor      OFF\nQnpn    4          6  5             Nfor      OFF\nRfor    6          4  5G\nRrev    1          4  5G\nRshort  6          5  1MEG\nRlat    2          6  9.09\nRon     3          5  513.4m\nDfor    6          4  Zbrk\nDrev    1          4  Zbrk\nDgate   6          5  Zgate\n.MODEL  Zbrk       D  (IS=3.2E-16   IBV=100U  BV=600)\n.MODEL  Zgate      D  (IS=1E-16     IBV=100U  BV=10      VJ=0.3)\n.MODEL  Pfor       PNP(IS=5E-15     BF=0.95   CJE=5p     CJC=2p     TF=0.3U)\n.MODEL  Nfor       NPN(IS=1E-12     ISE=1E-9  BF=10.0    RC=0.45    CJE=30p     CJC=2p      TF=0.3U)\n.ENDS\n \n.SUBCKT S4S1       1  2             3\n*       TERMINALS: A  G             K\nQpnp    6          4  1             Pfor      OFF\nQnpn    4          6  5             Nfor      OFF\nRfor    6          4  5G\nRrev    1          4  5G\nRshort  6          5  1MEG\nRlat    2          6  9.09\nRon     3          5  513.4m\nDfor    6          4  Zbrk\nDrev    1          4  Zbrk\nDgate   6          5  Zgate\n.MODEL  Zbrk       D  (IS=3.2E-16   IBV=100U  BV=400)\n.MODEL  Zgate      D  (IS=1E-16     IBV=100U  BV=10      VJ=0.3)\n.MODEL  Pfor       PNP(IS=5E-15     BF=6.10   CJE=5p     CJC=2p     TF=0.3U)\n.MODEL  Nfor       NPN(IS=1E-12     ISE=1E-9  BF=10.0    RC=0.45    CJE=30p     CJC=2p      TF=0.3U)\n.ENDS\n \n.SUBCKT S6S1       1  2             3\n*       TERMINALS: A  G             K\nQpnp    6          4  1             Pfor      OFF\nQnpn    4          6  5             Nfor      OFF\nRfor    6          4  5G\nRrev    1          4  5G\nRshort  6          5  1MEG\nRlat    2          6  9.09\nRon     3          5  513.4m\nDfor    6          4  Zbrk\nDrev    1          4  Zbrk\nDgate   6          5  Zgate\n.MODEL  Zbrk       D  (IS=3.2E-16   IBV=100U  BV=600)\n.MODEL  Zgate      D  (IS=1E-16     IBV=100U  BV=10      VJ=0.3)\n.MODEL  Pfor       PNP(IS=5E-15     BF=6.10   CJE=5p     CJC=2p     TF=0.3U)\n.MODEL  Nfor       NPN(IS=1E-12     ISE=1E-9  BF=10.0    RC=0.45    CJE=30p     CJC=2p      TF=0.3U)\n.ENDS\n \n.SUBCKT S4S2       1  2             3\n*       TERMINALS: A  G             K\nQpnp    6          4  1             Pfor      OFF\nQnpn    4          6  5             Nfor      OFF\nRfor    6          4  5G\nRrev    1          4  5G\nRshort  6          5  1MEG\nRlat    2          6  9.09\nRon     3          5  513.4m\nDfor    6          4  Zbrk\nDrev    1          4  Zbrk\nDgate   6          5  Zgate\n.MODEL  Zbrk       D  (IS=3.2E-16   IBV=100U  BV=400)\n.MODEL  Zgate      D  (IS=1E-16     IBV=100U  BV=10      VJ=0.3)\n.MODEL  Pfor       PNP(IS=5E-15     BF=2.20   CJE=5p     CJC=2p     TF=0.3U)\n.MODEL  Nfor       NPN(IS=1E-12     ISE=1E-9  BF=10.0    RC=0.45    CJE=30p     CJC=2p      TF=0.3U)\n.ENDS\n \n.SUBCKT S6S2       1  2             3\n*       TERMINALS: A  G             K\nQpnp    6          4  1             Pfor      OFF\nQnpn    4          6  5             Nfor      OFF\nRfor    6          4  5G\nRrev    1          4  5G\nRshort  6          5  1MEG\nRlat    2          6  9.09\nRon     3          5  513.4m\nDfor    6          4  Zbrk\nDrev    1          4  Zbrk\nDgate   6          5  Zgate\n.MODEL  Zbrk       D  (IS=3.2E-16   IBV=100U  BV=600)\n.MODEL  Zgate      D  (IS=1E-16     IBV=100U  BV=10      VJ=0.3)\n.MODEL  Pfor       PNP(IS=5E-15     BF=2.20   CJE=5p     CJC=2p     TF=0.3U)\n.MODEL  Nfor       NPN(IS=1E-12     ISE=1E-9  BF=10.0    RC=0.45    CJE=30p     CJC=2p      TF=0.3U)\n.ENDS\n \n.SUBCKT S4S        1  2             3\n*       TERMINALS: A  G             K\nQpnp    6          4  1             Pfor      OFF\nQnpn    4          6  5             Nfor      OFF\nRfor    6          4  5G\nRrev    1          4  5G\nRshort  6          5  1MEG\nRlat    2          6  9.09\nRon     3          5  513.4m\nDfor    6          4  Zbrk\nDrev    1          4  Zbrk\nDgate   6          5  Zgate\n.MODEL  Zbrk       D  (IS=3.2E-16   IBV=100U  BV=400)\n.MODEL  Zgate      D  (IS=1E-16     IBV=100U  BV=10      VJ=0.3)\n.MODEL  Pfor       PNP(IS=5E-15     BF=1.10   CJE=5p     CJC=2p     TF=0.3U)\n.MODEL  Nfor       NPN(IS=1E-12     ISE=1E-9  BF=10.0    RC=0.45    CJE=30p     CJC=2p      TF=0.3U)\n.ENDS\n \n.SUBCKT S6S        1  2             3\n*       TERMINALS: A  G             K\nQpnp    6          4  1             Pfor      OFF\nQnpn    4          6  5             Nfor      OFF\nRfor    6          4  5G\nRrev    1          4  5G\nRshort  6          5  1MEG\nRlat    2          6  9.09\nRon     3          5  513.4m\nDfor    6          4  Zbrk\nDrev    1          4  Zbrk\nDgate   6          5  Zgate\n.MODEL  Zbrk       D  (IS=3.2E-16   IBV=100U  BV=600)\n.MODEL  Zgate      D  (IS=1E-16     IBV=100U  BV=10      VJ=0.3)\n.MODEL  Pfor       PNP(IS=5E-15     BF=1.10   CJE=5p     CJC=2p     TF=0.3U)\n.MODEL  Nfor       NPN(IS=1E-12     ISE=1E-9  BF=10.0    RC=0.45    CJE=30p     CJC=2p      TF=0.3U)\n.ENDS\n \n.SUBCKT S4S3       1  2             3\n*       TERMINALS: A  G             K\nQpnp    6          4  1             Pfor      OFF\nQnpn    4          6  5             Nfor      OFF\nRfor    6          4  5G\nRrev    1          4  5G\nRshort  6          5  1MEG\nRlat    2          6  9.09\nRon     3          5  513.4m\nDfor    6          4  Zbrk\nDrev    1          4  Zbrk\nDgate   6          5  Zgate\n.MODEL  Zbrk       D  (IS=3.2E-16   IBV=100U  BV=400)\n.MODEL  Zgate      D  (IS=1E-16     IBV=100U  BV=10      VJ=0.3)\n.MODEL  Pfor       PNP(IS=5E-15     BF=0.95   CJE=5p     CJC=2p     TF=0.3U)\n.MODEL  Nfor       NPN(IS=1E-12     ISE=1E-9  BF=10.0    RC=0.45    CJE=30p     CJC=2p      TF=0.3U)\n.ENDS\n \n.SUBCKT S6S3       1  2             3\n*       TERMINALS: A  G             K\nQpnp    6          4  1             Pfor      OFF\nQnpn    4          6  5             Nfor      OFF\nRfor    6          4  5G\nRrev    1          4  5G\nRshort  6          5  1MEG\nRlat    2          6  9.09\nRon     3          5  513.4m\nDfor    6          4  Zbrk\nDrev    1          4  Zbrk\nDgate   6          5  Zgate\n.MODEL  Zbrk       D  (IS=3.2E-16   IBV=100U  BV=600)\n.MODEL  Zgate      D  (IS=1E-16     IBV=100U  BV=10      VJ=0.3)\n.MODEL  Pfor       PNP(IS=5E-15     BF=0.95   CJE=5p     CJC=2p     TF=0.3U)\n.MODEL  Nfor       NPN(IS=1E-12     ISE=1E-9  BF=10.0    RC=0.45    CJE=30p     CJC=2p      TF=0.3U)\n.ENDS
