Version 4
SHEET 1 1140 680
WIRE 192 -464 -128 -464
WIRE 320 -464 192 -464
WIRE 816 -464 320 -464
WIRE 1136 -464 816 -464
WIRE -48 -432 -128 -432
WIRE 192 -432 192 -464
WIRE 192 -432 -48 -432
WIRE 816 -384 816 -464
WIRE 816 -384 704 -384
WIRE 928 -384 816 -384
WIRE -48 -352 -48 -432
WIRE 704 -320 704 -384
WIRE 928 -320 928 -384
WIRE 320 -272 320 -464
WIRE 192 -192 192 -432
WIRE 192 -192 -16 -192
WIRE 704 -176 704 -240
WIRE 928 -176 928 -240
WIRE 928 -176 704 -176
WIRE 704 -112 704 -176
WIRE 320 -32 320 -192
WIRE 496 -32 320 -32
WIRE 656 -32 576 -32
WIRE 704 64 704 -16
WIRE 704 64 608 64
WIRE 800 64 704 64
WIRE 320 96 320 -32
WIRE 608 112 608 64
WIRE 800 112 800 64
WIRE -16 176 -16 -192
WIRE -16 176 -64 176
WIRE 32 176 -16 176
WIRE 112 176 32 176
WIRE 272 176 192 176
WIRE -64 256 -64 176
WIRE 32 256 32 176
WIRE 608 272 608 192
WIRE 704 272 608 272
WIRE 800 272 800 192
WIRE 800 272 704 272
WIRE 704 304 704 272
WIRE -64 384 -64 336
WIRE -16 384 -64 384
WIRE 32 384 32 320
WIRE 32 384 -16 384
WIRE 320 384 320 192
WIRE 928 384 928 -176
WIRE 928 384 320 384
WIRE -16 416 -16 384
FLAG -16 416 0
FLAG 704 304 0
FLAG -128 -464 1
FLAG -128 -432 2
FLAG -48 -352 0
SYMBOL res -80 240 R0
SYMATTR InstName R201
SYMATTR Value 3m
SYMBOL res 208 160 R90
WINDOW 0 0 56 VBottom 2
WINDOW 3 32 56 VTop 2
SYMATTR InstName R220
SYMATTR Value 100
SYMBOL res 304 -288 R0
SYMATTR InstName R221
SYMATTR Value 1m
SYMBOL sw 800 96 R0
WINDOW 3 24 44 Left 2
SYMATTR InstName S1
SYMATTR Value 2
SYMBOL sw 608 208 R180
WINDOW 3 24 -12 Left 2
SYMATTR InstName S2
SYMATTR Value 2
SYMBOL voltage 704 -336 R0
WINDOW 123 0 0 Left 0
WINDOW 39 0 0 Left 0
SYMATTR InstName V1
SYMATTR Value 5
SYMBOL voltage 928 -336 R0
WINDOW 123 0 0 Left 0
WINDOW 39 0 0 Left 0
SYMATTR InstName V2
SYMATTR Value 5
SYMBOL nmos 272 96 R0
SYMATTR InstName M1
SYMBOL nmos 656 -112 R0
SYMATTR InstName M2
SYMBOL zener 48 320 R180
WINDOW 0 24 64 Left 2
WINDOW 3 24 0 Left 2
SYMATTR InstName D2
SYMATTR Value BZX84C6V2L
SYMATTR Value2 0
SYMATTR SpiceLine 1
SYMATTR SpiceLine2 2
SYMBOL res 592 -48 R90
WINDOW 0 0 56 VBottom 2
WINDOW 3 32 56 VTop 2
SYMATTR InstName R202
SYMATTR Value 100
TEXT -158 440 Left 2 !.tran 30s
