Version 4
SHEET 1 2300 1396
WIRE 576 -272 432 -272
WIRE 800 -272 656 -272
WIRE 832 -272 800 -272
WIRE 928 -272 896 -272
WIRE 960 -272 928 -272
WIRE 1072 -272 960 -272
WIRE 1104 -272 1072 -272
WIRE -720 -192 -1168 -192
WIRE -224 -192 -720 -192
WIRE 16 -192 -224 -192
WIRE 432 -192 432 -272
WIRE 448 -192 432 -192
WIRE 800 -192 800 -272
WIRE 800 -192 768 -192
WIRE -848 -160 -1168 -160
WIRE -224 -112 -224 -192
WIRE -224 -112 -336 -112
WIRE 16 -112 16 -192
WIRE 448 -112 16 -112
WIRE 928 -112 928 -272
WIRE 928 -112 768 -112
WIRE 960 -112 960 -272
WIRE 1072 -64 1072 -272
WIRE -336 -48 -336 -112
WIRE 16 -32 16 -112
WIRE 64 -32 16 -32
WIRE 192 -32 144 -32
WIRE 320 -32 192 -32
WIRE 448 -32 320 -32
WIRE 960 -32 768 -32
WIRE 320 -16 320 -32
WIRE -720 0 -720 -192
WIRE 192 32 192 -32
WIRE 784 48 768 48
WIRE 864 48 848 48
WIRE 960 48 960 -32
WIRE 960 48 944 48
WIRE 960 64 960 48
WIRE -848 80 -848 -160
WIRE -848 80 -1056 80
WIRE 16 80 16 -32
WIRE 448 128 384 128
WIRE 800 128 768 128
WIRE -336 144 -336 32
WIRE -112 144 -336 144
WIRE 384 144 384 128
WIRE -336 160 -336 144
WIRE -720 240 -720 80
WIRE -544 240 -720 240
WIRE -384 240 -464 240
WIRE 16 240 16 144
WIRE 192 240 192 128
WIRE 192 240 16 240
WIRE 320 240 320 48
WIRE 320 240 192 240
WIRE 384 240 384 224
WIRE 384 240 320 240
WIRE 624 240 384 240
WIRE 800 240 800 128
WIRE 800 240 624 240
WIRE 960 240 960 144
WIRE 960 240 800 240
WIRE 1072 240 1072 0
WIRE 1072 240 960 240
WIRE 624 272 624 240
WIRE -720 368 -720 240
WIRE -1056 448 -1056 80
WIRE -1056 448 -1104 448
WIRE -1008 448 -1056 448
WIRE -928 448 -1008 448
WIRE -768 448 -848 448
WIRE -1104 528 -1104 448
WIRE -1008 528 -1008 448
WIRE -1104 656 -1104 608
WIRE -1056 656 -1104 656
WIRE -1008 656 -1008 592
WIRE -1008 656 -1056 656
WIRE -720 656 -720 464
WIRE -112 656 -112 144
WIRE -112 656 -720 656
WIRE -1056 800 -1056 656
WIRE -720 800 -1056 800
WIRE -336 800 -336 256
WIRE -336 800 -720 800
WIRE -720 848 -720 800
FLAG 624 272 0
FLAG 1104 -272 +BATT
FLAG -1168 -192 1
FLAG -1168 -160 2
FLAG -720 848 0
SYMBOL PowerProducts\\LTC3440 608 -32 R0
WINDOW 0 -1 -125 Center 0
SYMATTR InstName U1
SYMBOL ind 560 -256 R270
WINDOW 0 32 56 VTop 0
WINDOW 3 5 56 VBottom 0
SYMATTR InstName L1
SYMATTR Value 10µ
SYMATTR SpiceLine Ipk=1 Rser=0.226 Rpar=942 Cpar=0 mfg="Coilcraft" pn="DO1606T-103"
SYMBOL res 368 128 R0
SYMATTR InstName R1
SYMATTR Value 60.4K
SYMBOL res 944 -128 R0
SYMATTR InstName R2
SYMATTR Value 619k
SYMBOL cap 1056 -64 R0
SYMATTR InstName C1
SYMATTR Value 22µ
SYMATTR SpiceLine Rser=0.002
SYMBOL cap 304 -16 R0
SYMATTR InstName C2
SYMATTR Value 0.1µ
SYMBOL res 160 -48 R90
WINDOW 0 0 56 VBottom 2
WINDOW 3 32 56 VTop 2
SYMATTR InstName R4
SYMATTR Value 1000000
SYMBOL cap 0 80 R0
SYMATTR InstName C3
SYMATTR Value 10µ
SYMBOL schottky 832 -256 R270
WINDOW 0 32 32 VTop 2
WINDOW 3 0 32 VBottom 2
SYMATTR InstName D1
SYMATTR Value PMEG2010EA
SYMBOL res 944 48 R0
SYMATTR InstName R5
SYMATTR Value 200k
SYMBOL res 960 32 R90
WINDOW 0 0 56 VBottom 2
WINDOW 3 32 56 VTop 2
SYMATTR InstName R6
SYMATTR Value 15k
SYMBOL cap 848 32 R90
WINDOW 0 0 32 VBottom 2
WINDOW 3 32 32 VTop 2
SYMATTR InstName C4
SYMATTR Value 1.5n
SYMBOL res -1120 512 R0
SYMATTR InstName R7
SYMATTR Value 3000000
SYMBOL res -832 432 R90
WINDOW 0 0 56 VBottom 2
WINDOW 3 32 56 VTop 2
SYMATTR InstName R8
SYMATTR Value 100
SYMBOL res -736 -16 R0
SYMATTR InstName R9
SYMATTR Value 1000000
SYMBOL voltage -336 -64 R0
WINDOW 123 0 0 Left 0
WINDOW 39 0 0 Left 0
SYMATTR InstName V1
SYMATTR Value 3
SYMBOL nmos -768 368 R0
SYMATTR InstName M1
SYMATTR Value irlml2060pbf
SYMATTR Prefix X
SYMBOL nmos -384 160 R0
SYMATTR InstName M2
SYMATTR Value irlml2060pbf
SYMATTR Prefix X
SYMBOL zener -992 592 R180
WINDOW 0 24 64 Left 2
WINDOW 3 24 0 Left 2
SYMATTR InstName D2
SYMATTR Value BZX84C6V2L
SYMATTR Value2 0
SYMATTR SpiceLine 1
SYMATTR SpiceLine2 2
SYMBOL res -448 224 R90
WINDOW 0 0 56 VBottom 2
WINDOW 3 32 56 VTop 2
SYMATTR InstName R10
SYMATTR Value 100
SYMBOL nmos 144 32 R0
SYMATTR InstName M3
SYMATTR Value irlml2060pbf
SYMATTR Prefix X
TEXT 1192 144 Left 2 !.inc irfl4310.spi
TEXT -560 696 Left 2 !.tran 0 699 0 10000 startup
TEXT -2080 -552 Left 2 !.SUBCKT irlml2060pbf 1 2 3\n* SPICE3 MODEL WITH THERMAL RC NETWORK\n**************************************\n*      Model Generated by MODPEX     *\n*Copyright(c) Symmetry Design Systems*\n*         All Rights Reserved        *\n*    UNPUBLISHED LICENSED SOFTWARE   *\n*   Contains Proprietary Information *\n*      Which is The Property of      *\n*     SYMMETRY OR ITS LICENSORS      *\n*Commercial Use or Resale Restricted *\n*   by Symmetry License Agreement    *\n**************************************\n* Model generated on Aug 16, 10\n* MODEL FORMAT: SPICE3\n* Symmetry POWER MOS Model (Version 1.0)\n* External Node Designations\n* Node 1 -> Drain\n* Node 2 -> Gate\n* Node 3 -> Source\nM1 9 7 8 8 MM L=100u W=100u\n.MODEL MM NMOS LEVEL=1 IS=1e-32\n+VTO=2.80157 LAMBDA=0.0343822 KP=4.48896\n+CGSO=5.8563e-07 CGDO=1.50373e-08\nRS 8 3 0.330834\nD1 3 1 MD\n.MODEL MD D IS=1.4393e-09 RS=0.0402678 N=1.5 BV=60\n+IBV=0.00025 EG=1 XTI=1 TT=1e-07\n+CJO=4.47874e-11 VJ=0.5 M=0.519102 FC=0.5\nRDS 3 1 1e+07\nRD 9 1 0.0274132\nRG 2 7 17.3855\nD2 4 5 MD1\n* Default values used in MD1:\n*   RS=0 EG=1.11 XTI=3.0 TT=0\n*   BV=infinite IBV=1mA\n.MODEL MD1 D IS=1e-32 N=50\n+CJO=1.66547e-11 VJ=0.5 M=0.3 FC=1e-08\nD3 0 5 MD2\n* Default values used in MD2:\n*   EG=1.11 XTI=3.0 TT=0 CJO=0\n*   BV=infinite IBV=1mA\n.MODEL MD2 D IS=1e-10 N=0.4 RS=3e-06\nRL 5 10 1\nFI2 7 9 VFI2 -1\nVFI2 4 0 0\nEV16 10 0 9 7 1\nCAP 11 10 4.56066e-11\nFI1 7 9 VFI1 -1\nVFI1 11 6 0\nRCAP 6 10 1\nD4 0 6 MD3\n* Default values used in MD3:\n*   EG=1.11 XTI=3.0 TT=0 CJO=0\n*   RS=0 BV=infinite IBV=1mA\n.MODEL MD3 D IS=1e-10 N=0.4\n.ENDS irlml2060pbf\n*SPICE Thermal Model Subcircuit\n.SUBCKT irlml2060pbft 5 1\n \nR_RTHERM1         5 4  4.663e+00\nR_RTHERM2         4 3  4.216e+01\nR_RTHERM3         3 2  3.481e+01\nR_RTHERM4         2 1  1.832e+01\nC_CTHERM1         5 1  3.165e-05\nC_CTHERM2         4 1  1.524e-03\nC_CTHERM3         3 1  1.125e-02\nC_CTHERM4         2 1  3.319e-04\n \n.ENDS irlml2060pbft
TEXT 1504 -480 Left 2 !.SUBCKT irfl4310 1 2 3\n**************************************\n*      Model Generated by MODPEX     *\n*Copyright(c) Symmetry Design Systems*\n*         All Rights Reserved        *\n*    UNPUBLISHED LICENSED SOFTWARE   *\n*   Contains Proprietary Information *\n*      Which is The Property of      *\n*     SYMMETRY OR ITS LICENSORS      *\n*Commercial Use or Resale Restricted *\n*   by Symmetry License Agreement    *\n**************************************\n* Model generated on Nov 20, 01\n* MODEL FORMAT: SPICE3\n* Symmetry POWER MOS Model (Version 1.0)\n* External Node Designations\n* Node 1 -> Drain\n* Node 2 -> Gate\n* Node 3 -> Source\nM1 9 7 8 8 MM L=100u W=100u\n.MODEL MM NMOS LEVEL=1 IS=1e-32\n+VTO=3.58936 LAMBDA=0.000801004 KP=6.35786\n+CGSO=2.7e-06 CGDO=1.75409e-07\nRS 8 3 0.0864378\nD1 3 1 MD\n.MODEL MD D IS=5.09176e-15 RS=0.0287852 N=0.898689 BV=100\n+IBV=0.00025 EG=1 XTI=4 TT=0.0001\n+CJO=1.70375e-10 VJ=1.2893 M=0.492492 FC=0.5\nRDS 3 1 1e+06\nRD 9 1 0.0655086\nRG 2 7 14.0675\nD2 4 5 MD1\n* Default values used in MD1:\n*   RS=0 EG=1.11 XTI=3.0 TT=0\n*   BV=infinite IBV=1mA\n.MODEL MD1 D IS=1e-32 N=50\n+CJO=4.26402e-10 VJ=0.5 M=0.631994 FC=1e-08\nD3 0 5 MD2\n* Default values used in MD2:\n*   EG=1.11 XTI=3.0 TT=0 CJO=0\n*   BV=infinite IBV=1mA\n.MODEL MD2 D IS=1e-10 N=0.4 RS=3e-06\nRL 5 10 1\nFI2 7 9 VFI2 -1\nVFI2 4 0 0\nEV16 10 0 9 7 1\nCAP 11 10 9.53251e-10\nFI1 7 9 VFI1 -1\nVFI1 11 6 0\nRCAP 6 10 1\nD4 0 6 MD3\n* Default values used in MD3:\n*   EG=1.11 XTI=3.0 TT=0 CJO=0\n*   RS=0 BV=infinite IBV=1mA\n.MODEL MD3 D IS=1e-10 N=0.4\n.ENDS irfl4310
