Version 4
SHEET 1 1748 804
WIRE 32 -16 -112 -16
WIRE 256 -16 112 -16
WIRE 288 -16 256 -16
WIRE 384 -16 352 -16
WIRE 416 -16 384 -16
WIRE 528 -16 416 -16
WIRE 560 -16 528 -16
WIRE -528 64 -640 64
WIRE -112 64 -112 -16
WIRE -96 64 -112 64
WIRE 256 64 256 -16
WIRE 256 64 224 64
WIRE -976 144 -976 112
WIRE -864 144 -864 112
WIRE -528 144 -528 64
WIRE -96 144 -528 144
WIRE 384 144 384 -16
WIRE 384 144 224 144
WIRE 416 144 416 -16
WIRE 528 192 528 -16
WIRE -528 224 -528 144
WIRE -480 224 -528 224
WIRE -224 224 -400 224
WIRE -96 224 -224 224
WIRE 416 224 224 224
WIRE -976 240 -976 224
WIRE -864 240 -864 224
WIRE -224 240 -224 224
WIRE -272 272 -336 272
WIRE -96 304 -128 304
WIRE 240 304 224 304
WIRE 320 304 304 304
WIRE 416 304 416 224
WIRE 416 304 400 304
WIRE -128 320 -128 304
WIRE 416 320 416 304
WIRE -528 336 -528 224
WIRE -272 336 -272 272
WIRE -96 384 -160 384
WIRE 256 384 224 384
WIRE -160 400 -160 384
WIRE -272 432 -272 416
WIRE -528 496 -528 400
WIRE -336 496 -336 272
WIRE -336 496 -528 496
WIRE -224 496 -224 304
WIRE -224 496 -336 496
WIRE -160 496 -160 480
WIRE -160 496 -224 496
WIRE 80 496 -160 496
WIRE 256 496 256 384
WIRE 256 496 80 496
WIRE 416 496 416 400
WIRE 416 496 256 496
WIRE 528 496 528 256
WIRE 528 496 416 496
WIRE 80 528 80 496
FLAG -128 320 0
FLAG -272 432 +5V
FLAG 80 528 0
FLAG -864 240 0
FLAG -864 112 +5V
FLAG 560 -16 +BATT
FLAG -976 240 0
FLAG -976 112 Vin
FLAG -640 64 Vin
SYMBOL PowerProducts\\LTC3440 64 224 R0
WINDOW 0 -1 -125 Center 0
SYMATTR InstName U1
SYMBOL ind 16 0 R270
WINDOW 0 32 56 VTop 0
WINDOW 3 5 56 VBottom 0
SYMATTR InstName L1
SYMATTR Value 10µ
SYMATTR SpiceLine Ipk=1 Rser=0.226 Rpar=942 Cpar=0 mfg="Coilcraft" pn="DO1606T-103"
SYMBOL res -176 384 R0
SYMATTR InstName R1
SYMATTR Value 60.4K
SYMBOL res 400 128 R0
SYMATTR InstName R4
SYMATTR Value 619k
SYMBOL cap 512 192 R0
SYMATTR InstName C3
SYMATTR Value 22µ
SYMATTR SpiceLine Rser=0.002
SYMBOL cap -240 240 R0
SYMATTR InstName C4
SYMATTR Value 0.1µ
SYMBOL res -288 320 R0
SYMATTR InstName R5
SYMATTR Value 100
SYMBOL res -384 208 R90
WINDOW 0 0 56 VBottom 2
WINDOW 3 32 56 VTop 2
SYMATTR InstName R6
SYMATTR Value 1000k
SYMBOL cap -544 336 R0
SYMATTR InstName C1
SYMATTR Value 10µ
SYMBOL schottky 288 0 R270
WINDOW 0 32 32 VTop 2
WINDOW 3 0 32 VBottom 2
SYMATTR InstName D1
SYMATTR Value BAT54
SYMBOL voltage -864 128 R0
WINDOW 123 0 0 Left 0
WINDOW 39 0 0 Left 0
SYMATTR InstName V1
SYMATTR Value 5V
SYMBOL res 400 304 R0
SYMATTR InstName R2
SYMATTR Value 200k
SYMBOL res 416 288 R90
WINDOW 0 0 56 VBottom 2
WINDOW 3 32 56 VTop 2
SYMATTR InstName R3
SYMATTR Value 15k
SYMBOL cap 304 288 R90
WINDOW 0 0 32 VBottom 2
WINDOW 3 32 32 VTop 2
SYMATTR InstName C2
SYMATTR Value 1.5n
SYMBOL voltage -976 128 R0
WINDOW 123 0 0 Left 0
WINDOW 39 0 0 Left 0
SYMATTR InstName V2
SYMATTR Value 4.5V
TEXT -1008 552 Left 2 !;tran 10ms
TEXT 648 400 Left 2 !.inc irfl4310.spi
TEXT -1010 572 Left 2 !.tran 6ms
