Version 4
SHEET 1 2572 840
WIRE -448 -464 -704 -464
WIRE 128 -464 -448 -464
WIRE 256 -464 128 -464
WIRE 368 -464 368 -512
WIRE 368 -464 256 -464
WIRE 784 -464 368 -464
WIRE 1024 -464 784 -464
WIRE -448 -400 -448 -464
WIRE 784 -368 784 -464
WIRE 1024 -368 1024 -464
WIRE 128 -352 128 -384
WIRE 576 -352 128 -352
WIRE 752 -352 688 -352
WIRE -16 -336 -128 -336
WIRE 128 -336 128 -352
WIRE 128 -336 -16 -336
WIRE 944 -336 816 -336
WIRE 656 -320 656 -352
WIRE 752 -320 656 -320
WIRE -208 -304 -208 -336
WIRE 576 -288 432 -288
WIRE 608 -288 576 -288
WIRE 688 -288 688 -352
WIRE 256 -272 256 -384
WIRE 432 -272 432 -288
WIRE 432 -272 256 -272
WIRE 576 -256 576 -288
WIRE 944 -256 944 -336
WIRE 1024 -256 1024 -288
WIRE 1024 -256 944 -256
WIRE -16 -224 -16 -336
WIRE -448 -208 -448 -320
WIRE -256 -208 -256 -224
WIRE -256 -208 -448 -208
WIRE 256 -144 256 -272
WIRE 432 -144 432 -272
WIRE 576 -144 576 -176
WIRE -704 -128 -704 -464
WIRE -496 -128 -624 -128
WIRE -448 -128 -496 -128
WIRE -704 -80 -704 -128
WIRE 672 -64 528 -64
WIRE 1024 -64 1024 -256
WIRE 1024 -64 752 -64
WIRE -448 0 -448 -112
WIRE -448 0 -704 0
WIRE -208 0 -208 -208
WIRE -208 0 -448 0
WIRE -16 0 -16 -160
WIRE -16 0 -208 0
WIRE 256 0 256 -64
WIRE 256 0 -16 0
WIRE 432 0 432 -80
WIRE 432 0 256 0
WIRE 576 0 576 -48
WIRE 576 0 432 0
WIRE 784 0 784 -304
WIRE 784 0 576 0
WIRE 1024 0 784 0
FLAG -16 0 0
FLAG 368 -592 0
SYMBOL nmos -496 -208 R0
SYMATTR InstName M1
SYMATTR Value irlml2060pbf
SYMATTR Prefix X
SYMBOL res -720 -96 R0
SYMATTR InstName R1
SYMATTR Value 1000000
SYMBOL res -608 -144 R90
WINDOW 0 0 56 VBottom 2
WINDOW 3 32 56 VTop 2
SYMATTR InstName R2
SYMATTR Value 100
SYMBOL res -464 -416 R0
SYMATTR InstName R3
SYMATTR Value 1000000
SYMBOL nmos -256 -304 R0
SYMATTR InstName M2
SYMATTR Value irlml2060pbf
SYMATTR Prefix X
SYMBOL res -112 -352 R90
WINDOW 0 0 56 VBottom 2
WINDOW 3 32 56 VTop 2
SYMATTR InstName R4
SYMATTR Value 1k
SYMBOL polcap -32 -224 R0
SYMATTR InstName C1
SYMATTR Value 660µ
SYMBOL res 112 -480 R0
SYMATTR InstName R5
SYMATTR Value 3480000
SYMBOL res 240 -480 R0
SYMATTR InstName R6
SYMATTR Value 442k
SYMBOL cap 416 -144 R0
SYMATTR InstName C2
SYMATTR Value 100n
SYMBOL res 240 -160 R0
SYMATTR InstName R7
SYMATTR Value 1000000
SYMBOL res 560 -272 R0
SYMATTR InstName R8
SYMATTR Value 1k
SYMBOL res 672 -368 R90
WINDOW 0 0 56 VBottom 2
WINDOW 3 32 56 VTop 2
SYMATTR InstName R10
SYMATTR Value 1000
SYMBOL nmos 528 -144 R0
SYMATTR InstName M3
SYMATTR Value irlml2060pbf
SYMATTR Prefix X
SYMBOL res 768 -80 R90
WINDOW 0 0 56 VBottom 2
WINDOW 3 32 56 VTop 2
SYMATTR InstName R11
SYMATTR Value 100
SYMBOL cap 1008 -64 R0
SYMATTR InstName C3
SYMATTR Value 100n
SYMBOL res 1008 -384 R0
SYMATTR InstName R12
SYMATTR Value 1k
SYMBOL voltage 368 -496 R180
WINDOW 0 24 96 Left 2
WINDOW 3 24 16 Left 2
WINDOW 123 0 0 Left 0
WINDOW 39 0 0 Left 0
SYMATTR InstName V1
SYMATTR Value PULSE(0.5 1 0.00001 0.00001 9999999)
SYMBOL res 704 -304 R90
WINDOW 0 0 56 VBottom 2
WINDOW 3 32 56 VTop 2
SYMATTR InstName R9
SYMATTR Value 1k
SYMBOL Comparators\\LT1017 784 -336 R0
SYMATTR InstName U2
TEXT -1808 -1128 Left 2 !.SUBCKT irlml2060pbf 1 2 3\n* SPICE3 MODEL WITH THERMAL RC NETWORK\n**************************************\n*      Model Generated by MODPEX     *\n*Copyright(c) Symmetry Design Systems*\n*         All Rights Reserved        *\n*    UNPUBLISHED LICENSED SOFTWARE   *\n*   Contains Proprietary Information *\n*      Which is The Property of      *\n*     SYMMETRY OR ITS LICENSORS      *\n*Commercial Use or Resale Restricted *\n*   by Symmetry License Agreement    *\n**************************************\n* Model generated on Aug 16, 10\n* MODEL FORMAT: SPICE3\n* Symmetry POWER MOS Model (Version 1.0)\n* External Node Designations\n* Node 1 -> Drain\n* Node 2 -> Gate\n* Node 3 -> Source\nM1 9 7 8 8 MM L=100u W=100u\n.MODEL MM NMOS LEVEL=1 IS=1e-32\n+VTO=2.80157 LAMBDA=0.0343822 KP=4.48896\n+CGSO=5.8563e-07 CGDO=1.50373e-08\nRS 8 3 0.330834\nD1 3 1 MD\n.MODEL MD D IS=1.4393e-09 RS=0.0402678 N=1.5 BV=60\n+IBV=0.00025 EG=1 XTI=1 TT=1e-07\n+CJO=4.47874e-11 VJ=0.5 M=0.519102 FC=0.5\nRDS 3 1 1e+07\nRD 9 1 0.0274132\nRG 2 7 17.3855\nD2 4 5 MD1\n* Default values used in MD1:\n*   RS=0 EG=1.11 XTI=3.0 TT=0\n*   BV=infinite IBV=1mA\n.MODEL MD1 D IS=1e-32 N=50\n+CJO=1.66547e-11 VJ=0.5 M=0.3 FC=1e-08\nD3 0 5 MD2\n* Default values used in MD2:\n*   EG=1.11 XTI=3.0 TT=0 CJO=0\n*   BV=infinite IBV=1mA\n.MODEL MD2 D IS=1e-10 N=0.4 RS=3e-06\nRL 5 10 1\nFI2 7 9 VFI2 -1\nVFI2 4 0 0\nEV16 10 0 9 7 1\nCAP 11 10 4.56066e-11\nFI1 7 9 VFI1 -1\nVFI1 11 6 0\nRCAP 6 10 1\nD4 0 6 MD3\n* Default values used in MD3:\n*   EG=1.11 XTI=3.0 TT=0 CJO=0\n*   RS=0 BV=infinite IBV=1mA\n.MODEL MD3 D IS=1e-10 N=0.4\n.ENDS irlml2060pbf\n*SPICE Thermal Model Subcircuit\n.SUBCKT irlml2060pbft 5 1\n \nR_RTHERM1         5 4  4.663e+00\nR_RTHERM2         4 3  4.216e+01\nR_RTHERM3         3 2  3.481e+01\nR_RTHERM4         2 1  1.832e+01\nC_CTHERM1         5 1  3.165e-05\nC_CTHERM2         4 1  1.524e-03\nC_CTHERM3         3 1  1.125e-02\nC_CTHERM4         2 1  3.319e-04\n \n.ENDS irlml2060pbft
TEXT -1810 824 Left 2 !.tran 0 3600 0 1
